RELAT_NEW.OUT
CEPEL - CENTRO DE PESQUISAS DE ENERGIA ELETRICA - PROGRAMA DE ANALISE DE REDES - V12.00.01                                 PAG.   1

 ****   Sistema teste de 14 maquinas - IEEE  ****                                
 RELATORIO DE CONVERGENCIA

 OPCOES ATIVADAS: QLIM NEWT RCVG RMON FILE INMN UNPG

 X-----------X------X------X---------------X---------------X---------------X--X-----------------------------------------------------------X
    ITERACAO          FREQ.  ERRO MAX BARRA  ERRO MAX BARRA  ERRO MAX  CONV                                                                
  FC  P  Q  V  M.O.   (Hz)       MW    NUM.     Mvar   NUM.  TENSAO %  NUM. FM  BARRA(B), CIRCUITO(C) E CONVERSOR COM LIMITE VIOLADO       
 X--X--X--X--X------X------X---------X-----X---------X-----X---------X-----X--X-----------------------------------------------------------X

      1  1    1.0000 60.000     92.19     3     65.53    14
      2  2    1.0000 60.000      8.13     2     20.55     5
      3  3    1.0000 60.000      0.18    14**********     8
                                                                                  2B    6B    8B
      4  4    1.0000 60.000     27.82    14     17.94    14
      5  5    1.0000 60.000     16.72    14     13.52    14
      6  6    1.0000 60.000     31.28    14     18.51    14
      7  7    1.0000 60.000     23.27    14     13.72    14
      8  8    1.0000 60.000     16.28    14     12.48    14
 ................................................................




 ****** SISTEMA CA DIVERGENTE ******

 X-----------X------X------X---------------X---------------X---------------X
    ITERACAO          FREQ. ERRO MAX BARRA  ERRO MAX BARRA  ERRO MAX  CONV  
  FC  P  Q  V  M.O.   (Hz)      MW    NUM.     Mvar   NUM.  TENSAO %  NUM.  
 X--X--X--X--X------X------X---------X-----X---------X-----X---------X-----X

   0                             0.00     0      0.00     0
      8  8  0 1.0000 60.000     16.28    14     12.48    14     0.000     0
CEPEL - CENTRO DE PESQUISAS DE ENERGIA ELETRICA - PROGRAMA DE ANALISE DE REDES - V12.00.01                                 PAG.   2

 ****   Sistema teste de 14 maquinas - IEEE  ****                                
 RELATORIO DE BARRAS CA DO SISTEMA * AREA   1 *                                     

 X---------------------X-----------X---------------X---------------X---------------X---------------X---------------X---------------X---X
          BARRA            TENSAO        GERACAO     INJECAO EQUIV        CARGA          ELO CC          SHUNT           MOTOR
  NUM.      NOME     TP  MOD   ANG      MW    Mvar\     MW    Mvar      MW    Mvar      MW    Mvar    Mvar   EQUIV      MW    Mvar
                                            CE Mvar                                                 SHUNT L                         EST
 X-----X------------X--X-----X-----X-------X-------X-------X-------X-------X-------X-------X-------X-------X-------X-------X-------X---X

      1 BARRA-1       2 1.060  -0.0   310.2    67.9     0.0     0.0     0.0     0.0     0.0     0.0     0.0     0.0     0.0     0.0 LIG
      2 BARRA-2      -1 1.084  -4.8    40.0    50.0     0.0     0.0    21.7    12.7     0.0     0.0     0.0     0.0     0.0     0.0 LIG
      3 BARRA-3       1 1.010 -10.3     0.0    96.6     0.0     0.0    94.2    19.0     0.0     0.0     0.0     0.0     0.0     0.0 LIG
      4 BARRA-4       0 1.124  -9.7     0.0     0.0     0.0     0.0    47.8    -3.9     0.0     0.0     0.0     0.0     0.0     0.0 LIG
      5 BARRA-5       0 1.124  -8.6     0.0     0.0     0.0     0.0     7.6     1.6     0.0     0.0     0.0     0.0     0.0     0.0 LIG
      6 BARRA-6      -1 1.337  -6.6     0.0    24.0     0.0     0.0    11.2     7.5     0.0     0.0     0.0     0.0     0.0     0.0 LIG
      7 BARRA-7       0 1.280  -8.8     0.0     0.0     0.0     0.0     0.0     0.0     0.0     0.0     0.0     0.0     0.0     0.0 LIG
      8 BARRA-8      -1 1.291  -8.8     0.0    10.0     0.0     0.0     0.0     0.0     0.0     0.0     0.0     0.0     0.0     0.0 LIG
      9 BARRA-9       0 1.335  -6.4     0.0     0.0     0.0     0.0    29.5    16.6     0.0     0.0    33.8     0.0     0.0     0.0 LIG
     10 BARRA-10      0 1.331  -6.4     0.0     0.0     0.0     0.0     9.0     5.8     0.0     0.0     0.0     0.0     0.0     0.0 LIG
     11 BARRA-11      0 1.333  -6.5     0.0     0.0     0.0     0.0     3.5     1.8     0.0     0.0     0.0     0.0     0.0     0.0 LIG
     12 BARRA-12      0 1.354  -5.7     0.0     0.0     0.0     0.0     6.1     1.6     0.0     0.0     0.0     0.0     0.0     0.0 LIG
     13 BARRA-13      0 1.375  -6.0     0.0     0.0     0.0     0.0    13.5     5.8     0.0     0.0     0.0     0.0     0.0     0.0 LIG
     14 BARRA-14      0 1.511   2.4     0.0     0.0     0.0     0.0    75.4    65.5     0.0     0.0     0.0     0.0     0.0     0.0 LIG
CEPEL - CENTRO DE PESQUISAS DE ENERGIA ELETRICA - PROGRAMA DE ANALISE DE REDES - V12.00.01                                 PAG.   3

 ****   Sistema teste de 14 maquinas - IEEE  ****                                
 *** CASO DIVERGENTE ***

 RELATORIO COMPLETO DO SISTEMA * AREA   1 *                                     

 X--------------------- D A D O S  -  B A R R A ---------------------------X------------- F L U X O S  -  C I R C U I T O S --------------X-----------------X-----------X-------X
  DA BARRA       TENSAO GERACAO INJ EQV  CARGA    ELO CC     SHUNT   MOTOR                                                                                                       
  NUM.  KV TIPO   MOD/     MW/     MW/     MW/      MW/      Mvar/     MW/                                                                    P E R D A S    T E N S A O         
       NOME       ANG     Mvar    Mvar    Mvar     Mvar      EQUIV    Mvar  PARA BARRA             F   L   U   X   O   S                    ATIVA   REATIVA  CIR. ABERTO  TRAFO  
                        MVA_NOM MVA_EMR MVA_EQP   FLUXO %   SHUNT L         NUM.      NOME     NC    MW     Mvar  MVA/V_d   TAP  DEFAS TIE    MW      Mvar    MOD   ANG  UOp UMx 
 X-------------X-------X-------X-------X-------X-----------X-------X-------X-----X------------X--X-------X-------X-------X------X-----X---X--------X--------X-----X-----X---X---X

      1    1  2   1.060   310.2     0.0     0.0         0.0     0.0     0.0
  BARRA-1          -0.0    67.9     0.0     0.0         0.0     0.0     0.0                                          
                         9999.0  9999.0  9999.0        0.0%                     2 BARRA-2       1   134.9   -84.1   150.0                      4.28     6.98                    
                         9999.0  9999.0  9999.0        0.0%                     5 BARRA-5       1    70.0   -44.1    78.0                      3.17     7.23                    
  ...............................................................................................................................................................................
      2    1 -1   1.084    40.0     0.0    21.7         0.0     0.0     0.0
  BARRA-2          -4.8    50.0     0.0    12.7         0.0     0.0     0.0                                          
                         9999.0  9999.0  9999.0        0.0%                     1 BARRA-1       1  -130.7    91.1   146.9                      4.28     6.98                    
                         9999.0  9999.0  9999.0        0.0%                     3 BARRA-3       1    59.8    26.5    60.3                      1.77     2.64                    
                         9999.0  9999.0  9999.0        0.0%                     4 BARRA-4       1    47.7   -39.4    57.0                      1.81     0.92                    
                         9999.0  9999.0  9999.0        0.0%                     5 BARRA-5       1    35.6   -36.7    47.2                      1.20    -0.49                    
  ...............................................................................................................................................................................
      3    1  1   1.010     0.0     0.0    94.2         0.0     0.0     0.0
  BARRA-3         -10.3    96.6     0.0    19.0         0.0     0.0     0.0                                          
                         9999.0  9999.0  9999.0        0.0%                     2 BARRA-2       1   -58.0   -23.9    62.1                      1.77     2.64                    
                         9999.0  9999.0  9999.0        0.0%                     4 BARRA-4       1   -27.9   -57.8    63.6                      2.58     2.63                    
  ...............................................................................................................................................................................
      4    1  0   1.124     0.0     0.0    47.8         0.0     0.0     0.0
  BARRA-4          -9.7     0.0     0.0    -3.9         0.0     0.0     0.0                                          
                         9999.0  9999.0  9999.0        0.0%                     2 BARRA-2       1   -45.9    40.3    54.3                      1.81     0.92                    
                         9999.0  9999.0  9999.0        0.0%                     3 BARRA-3       1    30.5    60.5    60.3                      2.58     2.63                    
                         9999.0  9999.0  9999.0        0.0%                     5 BARRA-5       1   -54.1    15.8    50.2                      0.34    -0.55                    
                         9999.0  9999.0  9999.0        0.0%                     7 BARRA-7       1   -12.1   -71.9    64.9 0.978F               0.00     8.41             001 001
                         9999.0  9999.0  9999.0        0.0%                     9 BARRA-9       1   -16.1   -36.0    35.1 0.969F               0.00     6.45             001 001
  ...............................................................................................................................................................................
      5    1  0   1.124     0.0     0.0     7.6         0.0     0.0     0.0
  BARRA-5          -8.6     0.0     0.0     1.6         0.0     0.0     0.0                                          
                         9999.0  9999.0  9999.0        0.0%                     1 BARRA-1       1   -66.8    51.3    74.9                      3.17     7.23                    
                         9999.0  9999.0  9999.0        0.0%                     2 BARRA-2       1   -34.4    36.3    44.4                      1.20    -0.49                    
                         9999.0  9999.0  9999.0        0.0%                     4 BARRA-4       1    54.5   -16.4    50.6                      0.34    -0.55                    
                         9999.0  9999.0  9999.0        0.0%                     6 BARRA-6       1   -22.8   -62.4    59.1 0.932F               0.00     7.64             001 001
  ...............................................................................................................................................................................
      6    1 -1   1.337     0.0     0.0    11.2         0.0     0.0     0.0
  BARRA-6          -6.6    24.0     0.0     7.5         0.0     0.0     0.0                                          
                         9999.0  9999.0  9999.0        0.0%                     5 BARRA-5       1    22.8    70.0    55.1                      0.00     7.64                    
                         9999.0  9999.0  9999.0        0.0%                    11 BARRA-11      1     0.2     3.0     2.2                      0.00     0.01                    
                         9999.0  9999.0  9999.0        0.0%                    12 BARRA-12      1   -12.1    -2.7     9.3                      0.11     0.22                    
                         9999.0  9999.0  9999.0        0.0%                    13 BARRA-13      1   -27.4   -25.1    27.8                      0.51     1.01                    
  ...............................................................................................................................................................................
CEPEL - CENTRO DE PESQUISAS DE ENERGIA ELETRICA - PROGRAMA DE ANALISE DE REDES - V12.00.01                                 PAG.   4

 ****   Sistema teste de 14 maquinas - IEEE  ****                                
 *** CASO DIVERGENTE ***

 RELATORIO COMPLETO DO SISTEMA * AREA   1 *                                     

 X--------------------- D A D O S  -  B A R R A ---------------------------X------------- F L U X O S  -  C I R C U I T O S --------------X-----------------X-----------X-------X
  DA BARRA       TENSAO GERACAO INJ EQV  CARGA    ELO CC     SHUNT   MOTOR                                                                                                       
  NUM.  KV TIPO   MOD/     MW/     MW/     MW/      MW/      Mvar/     MW/                                                                    P E R D A S    T E N S A O         
       NOME       ANG     Mvar    Mvar    Mvar     Mvar      EQUIV    Mvar  PARA BARRA             F   L   U   X   O   S                    ATIVA   REATIVA  CIR. ABERTO  TRAFO  
                        MVA_NOM MVA_EMR MVA_EQP   FLUXO %   SHUNT L         NUM.      NOME     NC    MW     Mvar  MVA/V_d   TAP  DEFAS TIE    MW      Mvar    MOD   ANG  UOp UMx 
 X-------------X-------X-------X-------X-------X-----------X-------X-------X-----X------------X--X-------X-------X-------X------X-----X---X--------X--------X-----X-----X---X---X

      7    1  0   1.280     0.0     0.0     0.0         0.0     0.0     0.0
  BARRA-7          -8.8     0.0     0.0     0.0         0.0     0.0     0.0                                          
                         9999.0  9999.0  9999.0        0.0%                     4 BARRA-4       1    12.1    80.3    63.4                      0.00     8.41                    
                         9999.0  9999.0  9999.0        0.0%                     8 BARRA-8       1     0.0    -7.9     6.1                      0.00     0.07                    
                         9999.0  9999.0  9999.0        0.0%                     9 BARRA-9       1   -63.2   -62.4    69.4                      0.00     5.30                    
  ...............................................................................................................................................................................
      8    1 -1   1.291     0.0     0.0     0.0         0.0     0.0     0.0
  BARRA-8          -8.8    10.0     0.0     0.0         0.0     0.0     0.0                                          
                         9999.0  9999.0  9999.0        0.0%                     7 BARRA-7       1     0.0     7.9     6.1                      0.00     0.07                    
  ...............................................................................................................................................................................
      9    1  0   1.335     0.0     0.0    29.5         0.0    33.8     0.0
  BARRA-9          -6.4     0.0     0.0    16.6         0.0     0.0     0.0                                          
                         9999.0  9999.0  9999.0        0.0%                     4 BARRA-4       1    16.1    42.5    34.0                      0.00     6.45                    
                         9999.0  9999.0  9999.0        0.0%                     7 BARRA-7       1    63.2    67.7    69.4                      0.00     5.30                    
                         9999.0  9999.0  9999.0        0.0%                    10 BARRA-10      1     0.3     4.8     3.6                      0.00     0.01                    
                         9999.0  9999.0  9999.0        0.0%                    14 BARRA-14      1  -124.2   -19.8    94.2                     11.29    24.01                    
  ...............................................................................................................................................................................
     10    1  0   1.331     0.0     0.0     9.0         0.0     0.0     0.0
  BARRA-10         -6.4     0.0     0.0     5.8         0.0     0.0     0.0                                          
                         9999.0  9999.0  9999.0        0.0%                     9 BARRA-9       1    -0.3    -4.8     3.6                      0.00     0.01                    
                         9999.0  9999.0  9999.0        0.0%                    11 BARRA-11      1     1.3    -1.3     1.4                      0.00     0.00                    
  ...............................................................................................................................................................................
     11    1  0   1.333     0.0     0.0     3.5         0.0     0.0     0.0
  BARRA-11         -6.5     0.0     0.0     1.8         0.0     0.0     0.0                                          
                         9999.0  9999.0  9999.0        0.0%                     6 BARRA-6       1    -0.2    -3.0     2.2                      0.00     0.01                    
                         9999.0  9999.0  9999.0        0.0%                    10 BARRA-10      1    -1.3     1.3     1.4                      0.00     0.00                    
  ...............................................................................................................................................................................
     12    1  0   1.354     0.0     0.0     6.1         0.0     0.0     0.0
  BARRA-12         -5.7     0.0     0.0     1.6         0.0     0.0     0.0                                          
                         9999.0  9999.0  9999.0        0.0%                     6 BARRA-6       1    12.3     3.0     9.3                      0.11     0.22                    
                         9999.0  9999.0  9999.0        0.0%                    13 BARRA-13      1    -5.2    -8.9     7.6                      0.13     0.12                    
  ...............................................................................................................................................................................
     13    1  0   1.375     0.0     0.0    13.5         0.0     0.0     0.0
  BARRA-13         -6.0     0.0     0.0     5.8         0.0     0.0     0.0                                          
                         9999.0  9999.0  9999.0        0.0%                     6 BARRA-6       1    27.9    26.2    27.8                      0.51     1.01                    
                         9999.0  9999.0  9999.0        0.0%                    12 BARRA-12      1     5.3     9.0     7.6                      0.13     0.12                    
                         9999.0  9999.0  9999.0        0.0%                    14 BARRA-14      1   -89.1    -3.4    64.8                      7.19    14.63                    
  ...............................................................................................................................................................................
CEPEL - CENTRO DE PESQUISAS DE ENERGIA ELETRICA - PROGRAMA DE ANALISE DE REDES - V12.00.01                                 PAG.   5

 ****   Sistema teste de 14 maquinas - IEEE  ****                                
 *** CASO DIVERGENTE ***

 RELATORIO COMPLETO DO SISTEMA * AREA   1 *                                     

 X--------------------- D A D O S  -  B A R R A ---------------------------X------------- F L U X O S  -  C I R C U I T O S --------------X-----------------X-----------X-------X
  DA BARRA       TENSAO GERACAO INJ EQV  CARGA    ELO CC     SHUNT   MOTOR                                                                                                       
  NUM.  KV TIPO   MOD/     MW/     MW/     MW/      MW/      Mvar/     MW/                                                                    P E R D A S    T E N S A O         
       NOME       ANG     Mvar    Mvar    Mvar     Mvar      EQUIV    Mvar  PARA BARRA             F   L   U   X   O   S                    ATIVA   REATIVA  CIR. ABERTO  TRAFO  
                        MVA_NOM MVA_EMR MVA_EQP   FLUXO %   SHUNT L         NUM.      NOME     NC    MW     Mvar  MVA/V_d   TAP  DEFAS TIE    MW      Mvar    MOD   ANG  UOp UMx 
 X-------------X-------X-------X-------X-------X-----------X-------X-------X-----X------------X--X-------X-------X-------X------X-----X---X--------X--------X-----X-----X---X---X

     14    1  0   1.511     0.0     0.0    75.4         0.0     0.0     0.0
  BARRA-14          2.4     0.0     0.0    65.5         0.0     0.0     0.0                                          
                         9999.0  9999.0  9999.0        0.0%                     9 BARRA-9       1   135.5    43.8    94.2                     11.29    24.01                    
                         9999.0  9999.0  9999.0        0.0%                    13 BARRA-13      1    96.3    18.0    64.8                      7.19    14.63                    



 TOTAIS DA AREA   1


 X--------X--------X--------X--------X--------X--------X--------X--------X
   GERACAO  INJ EQV   CARGA   ELO CC    SHUNT   EXPORT   IMPORT   PERDAS  
     MW/      MW/      MW/      MW/     Mvar/     MW/      MW/      MW/   
    Mvar     Mvar     Mvar     Mvar     EQUIV    Mvar     Mvar     Mvar   
 X--------X--------X--------X--------X--------X--------X--------X--------X

     350.2      0.0    319.5      0.0     33.8      0.0      0.0     34.4
     248.6      0.0    134.0      0.0      0.0      0.0      0.0     87.2
